Version 4
SHEET 1 1268 680
WIRE -96 -640 -128 -640
WIRE 240 -640 32 -640
WIRE -560 -624 -688 -624
WIRE 336 -624 304 -624
WIRE -96 -608 -128 -608
WIRE 64 -608 32 -608
WIRE 240 -608 192 -608
WIRE -96 -576 -128 -576
WIRE 144 -576 32 -576
WIRE -688 -560 -688 -624
WIRE -656 -560 -688 -560
WIRE -560 -544 -560 -624
WIRE -560 -544 -592 -544
WIRE -512 -544 -560 -544
WIRE -416 -544 -432 -544
WIRE -336 -544 -416 -544
WIRE -96 -544 -128 -544
WIRE 48 -544 32 -544
WIRE 144 -544 144 -576
WIRE 144 -544 128 -544
WIRE -656 -528 -688 -528
WIRE -128 -528 -128 -544
WIRE -416 -512 -416 -544
WIRE 192 -512 192 -608
WIRE 224 -512 192 -512
WIRE 336 -512 336 -624
WIRE 336 -512 304 -512
WIRE 192 -496 192 -512
WIRE -560 -400 -688 -400
WIRE 192 -400 192 -416
WIRE -688 -336 -688 -400
WIRE -656 -336 -688 -336
WIRE -560 -320 -560 -400
WIRE -560 -320 -592 -320
WIRE -512 -320 -560 -320
WIRE -416 -320 -432 -320
WIRE -336 -320 -416 -320
WIRE -656 -304 -688 -304
WIRE -416 -288 -416 -320
WIRE -96 -288 -128 -288
WIRE 240 -288 32 -288
WIRE -1248 -272 -1248 -304
WIRE -1152 -272 -1152 -304
WIRE -1040 -272 -1040 -304
WIRE 336 -272 304 -272
WIRE -96 -256 -128 -256
WIRE 64 -256 32 -256
WIRE 240 -256 192 -256
WIRE -96 -224 -128 -224
WIRE 144 -224 32 -224
WIRE -96 -192 -128 -192
WIRE 48 -192 32 -192
WIRE 144 -192 144 -224
WIRE 144 -192 128 -192
WIRE -128 -176 -128 -192
WIRE 192 -160 192 -256
WIRE 224 -160 192 -160
WIRE 336 -160 336 -272
WIRE 336 -160 304 -160
WIRE 192 -144 192 -160
WIRE -1248 -128 -1248 -192
WIRE -1152 -128 -1152 -192
WIRE -1040 -128 -1040 -192
WIRE -528 -48 -640 -48
WIRE -384 -48 -528 -48
WIRE -160 -48 -304 -48
WIRE -64 -48 -160 -48
WIRE 192 -48 192 -64
WIRE -640 -16 -640 -48
WIRE -528 0 -528 -48
WIRE -160 0 -160 -48
WIRE -64 16 -64 -48
WIRE -528 96 -528 64
WIRE -160 96 -160 64
WIRE -640 128 -640 64
WIRE -64 144 -64 96
FLAG -640 128 0
FLAG -64 144 0
FLAG -160 96 0
FLAG -528 96 0
FLAG -528 -48 IN+
FLAG -160 -48 IN-
FLAG -1152 -128 0
FLAG -1040 -128 0
FLAG -1040 -304 Vref
FLAG -1152 -304 Vcc
FLAG -624 -288 0
FLAG -624 -352 Vcc
FLAG -624 -576 Vcc
FLAG -688 -528 IN+
FLAG -688 -304 IN-
FLAG -336 -544 IN_1
FLAG -336 -320 IN_2
FLAG -1248 -128 0
FLAG -1248 -304 5V
FLAG -624 -512 0
FLAG -416 -432 0
FLAG -416 -208 0
FLAG -128 -528 0
FLAG -128 -640 IN_1
FLAG -128 -608 IN_2
FLAG 64 -608 Vref
FLAG -128 -176 0
FLAG -128 -288 IN_1
FLAG -128 -256 IN_2
FLAG 64 -256 Vref
FLAG -128 -576 5V
FLAG -128 -224 5V
FLAG 272 -592 Vcc
FLAG 272 -656 0
FLAG 192 -400 Vref
FLAG 272 -240 Vcc
FLAG 272 -304 0
FLAG 192 -48 Vref
SYMBOL voltage -640 -32 R0
WINDOW 123 0 0 Left 0
WINDOW 39 0 0 Left 0
SYMATTR InstName V1
SYMATTR Value 9
SYMBOL res -288 -64 R90
WINDOW 0 0 56 VBottom 2
WINDOW 3 32 56 VTop 2
SYMATTR InstName R1
SYMATTR Value 100
SYMBOL cap -176 0 R0
SYMATTR InstName C2
SYMATTR Value 0.1µ
SYMBOL current -64 16 R0
WINDOW 123 0 0 Left 0
WINDOW 39 0 0 Left 0
SYMATTR InstName I1
SYMATTR Value PULSE(1u 110u 20m 10n 10n 500m 10m 2)
SYMBOL cap -544 0 R0
SYMATTR InstName C3
SYMATTR Value 1µ
SYMBOL voltage -1152 -288 R0
WINDOW 123 0 0 Left 0
WINDOW 39 0 0 Left 0
SYMATTR InstName V2
SYMATTR Value 12
SYMBOL voltage -1040 -288 R0
WINDOW 123 0 0 Left 0
WINDOW 39 0 0 Left 0
SYMATTR InstName V3
SYMATTR Value 0.5
SYMBOL res -416 -336 R90
WINDOW 0 0 56 VBottom 2
WINDOW 3 32 56 VTop 2
SYMATTR InstName R2
SYMATTR Value 10k
SYMBOL res -400 -192 R180
WINDOW 0 36 76 Left 2
WINDOW 3 36 40 Left 2
SYMATTR InstName R3
SYMATTR Value 10k
SYMBOL OpAmps\\UniversalOpamp -624 -320 R0
SYMATTR InstName U2
SYMBOL res -416 -560 R90
WINDOW 0 0 56 VBottom 2
WINDOW 3 32 56 VTop 2
SYMATTR InstName R4
SYMATTR Value 10k
SYMBOL res -400 -416 R180
WINDOW 0 36 76 Left 2
WINDOW 3 36 40 Left 2
SYMATTR InstName R5
SYMATTR Value 10k
SYMBOL OpAmps\\UniversalOpamp -624 -544 R0
SYMATTR InstName U4
SYMBOL voltage -1248 -288 R0
WINDOW 123 0 0 Left 0
WINDOW 39 0 0 Left 0
SYMATTR InstName V4
SYMATTR Value 12
SYMBOL res 32 -176 R270
WINDOW 0 32 56 VTop 2
WINDOW 3 0 56 VBottom 2
SYMATTR InstName Rg
SYMATTR Value 50k
SYMBOL INA828 -32 -592 R0
SYMATTR InstName U1
SYMBOL res 32 -528 R270
WINDOW 0 32 56 VTop 2
WINDOW 3 0 56 VBottom 2
SYMATTR InstName Rg1
SYMATTR Value 500
SYMBOL INA828 -32 -240 R0
SYMATTR InstName U3
SYMBOL OpAmps\\UniversalOpamp 272 -624 M180
SYMATTR InstName U5
SYMBOL res 176 -512 R0
SYMATTR InstName Rg2
SYMATTR Value 10k
SYMBOL res 320 -528 R90
WINDOW 0 0 56 VBottom 2
WINDOW 3 32 56 VTop 2
SYMATTR InstName Rg3
SYMATTR Value 90k
SYMBOL OpAmps\\UniversalOpamp 272 -272 M180
SYMATTR InstName U6
SYMBOL res 176 -160 R0
SYMATTR InstName Rg4
SYMATTR Value 10k
SYMBOL res 320 -176 R90
WINDOW 0 0 56 VBottom 2
WINDOW 3 32 56 VTop 2
SYMATTR InstName Rg5
SYMATTR Value 40k
TEXT -1160 56 Left 2 !.tran 50ms
TEXT 40 -728 Left 2 ;G = 1 + 50k/Rg
TEXT -376 -264 Left 2 ;IN- min = 2V
